/*--------------------------------*- C++ -*----------------------------------*\
| =========                 |                                                 |
| \\      /  F ield         | OpenFOAM: The Open Source CFD Toolbox           |
|  \\    /   O peration     | Version:  v2312                                |
|   \\  /    A nd           | Web:      www.openfoam.com                        |
|    \\/     M anipulation  |                                                 |
\*---------------------------------------------------------------------------*/

FoamFile
{
    version     2.0;
    format      ascii;
    class       dictionary;
    location    "constant";
    object      radiationProperties;
}
// * * * * * * * * * * * * * * * * * * * * * * * * * * * * * * * * * * * * * //

radiationModel                       opaqueSolid;

absorptionEmissionModel     none;

constantCoeffs
{
    absorptivity    0.0;
    emissivity        0.0;
    E                        0.0;
}

scatterModel    none;


// ************************************************************************* //
