/*--------------------------------*- C++ -*----------------------------------*\
| =========                 |                                                 |
| \\      /  F ield         | OpenFOAM: The Open Source CFD Toolbox           |
|  \\    /   O peration     | Version:  2.2.2                                 |
|   \\  /    A nd           | Web:      www.OpenFOAM.org                      |
|    \\/     M anipulation  |                                                 |
\*---------------------------------------------------------------------------*/

FoamFile
{
    version     2.0;
    format      ascii;
    class       dictionary;
    location    "constant";
    object      radiationProperties;
}
// * * * * * * * * * * * * * * * * * * * * * * * * * * * * * * * * * * * * * //
radiation			off;	// on;

radiationModel  		opaqueSolid;  //none;

absorptionEmissionModel 	constant;   // constantAbsorptionEmission;  // none;

constantCoeffs
{
    absorptivity    0.0;  	//default 0 for opaque
    emissivity      0.0;      //default value is 0.1; 
    E               0.0;
}

scatterModel    none;
sootModel none;
// ************************************************************************* //

