/*--------------------------------*- C++ -*----------------------------------*\
| =========                 |                                                 |
| \\      /  F ield         | OpenFOAM: The Open Source CFD Toolbox           |
|  \\    /   O peration     | Version:  2.1.x                                 |
|   \\  /    A nd           | Web:      www.OpenFOAM.org                      |
|    \\/     M anipulation  |                                                 |
\*---------------------------------------------------------------------------*/
FoamFile
{
    version     2.0;
    format      ascii;
    class       dictionary;
    location    "constant/pipe";
    object      thermophysicalProperties;
}
// * * * * * * * * * * * * * * * * * * * * * * * * * * * * * * * * * * * * * //

thermoType
{
    type            heRhoThermo;
    mixture         pureMixture;
    transport       const;
    thermo          hConst;     
    equationOfState perfectGas;      // rhoConst;
    specie          specie;
    energy          sensibleEnthalpy;
}
// the gas is Air //data here is a defualt data from openfoam 
mixture
{
    specie
    {
        nMoles          1;
        molWeight       28.9;
    }
    thermodynamics
    {
        Cp              1006.4;
        Hf              0;
    }
    transport
    {
        mu              2.13e-05;
        Pr              0.7;
    }
}
//

// ************************************************************************* //
